<?xml version="1.0" encoding="UTF-8"?>
<!-- generated on 2021-07-22 09:04:05.125185 by $Id$ via randomTrips.py
  options: -n /home/vagrant/workspaces/workspace.phd/sdvn/simulations/ping/ping.net.xml -e 10 -o /home/vagrant/workspaces/workspace.phd/sdvn/simulations/ping/route.xml <doubleminus>vehicle-class passenger <doubleminus>validate
-->
<routes xmlns:xsi="http://www.w3.org/2001/XMLSchema-instance" xsi:noNamespaceSchemaLocation="http://sumo.dlr.de/xsd/routes_file.xsd">
	
	<vType id="vtype0" accel="2.6" decel="4.5" sigma="0.5" length="4.5" minGap="2.5" maxSpeed="14" color="1,1,0"/>
	
	<vType id="vtype1" accel="2.6" decel="4.5" sigma="0.5" length="4.5" minGap="2.5" maxSpeed="14" color="1,0,0" apparentDecel="0">
		<param key="has.driverstate.device" value="true"/>
		<param key="initialAwareness" value="0.5"/>
	</vType>
	
   <trip id="0" depart="0.00" from="AtoB_R" to="AtoB_R" type="vtype0"/>
   <trip id="1" depart="0.00" from="AtoB_R" to="AtoB_R" type="vtype0"/>
   <trip id="2" depart="0.00" from="AtoB_R" to="AtoB_R" type="vtype0"/>
   <trip id="3" depart="0.00" from="AtoB_R" to="AtoB_R" type="vtype0"/>
   <trip id="4" depart="0.00" from="AtoB_R" to="AtoB_R" type="vtype0"/>
   
   
   <trip id="5" depart="0.00" from="AtoB_L" to="AtoB_L" type="vtype1"/>
   <trip id="6" depart="0.00" from="AtoB_L" to="AtoB_L" type="vtype0"><stop lane="AtoB_L_0" endPos="250" duration="20"/></trip>
   <trip id="7" depart="0.00" from="AtoB_L" to="AtoB_L" type="vtype1"/>
   <trip id="8" depart="0.00" from="AtoB_L" to="AtoB_L" type="vtype0"/>
   <trip id="9" depart="0.00" from="AtoB_L" to="AtoB_L" type="vtype1"/>
   
</routes>
