<?xml version="1.0" encoding="UTF-8"?>
<!-- generated on 2021-07-22 09:04:05.125185 by $Id$ via randomTrips.py
  options: -n /home/vagrant/workspaces/workspace.phd/sdvn/simulations/ping/ping.net.xml -e 10 -o /home/vagrant/workspaces/workspace.phd/sdvn/simulations/ping/route.xml <doubleminus>vehicle-class vtype0 <doubleminus>validate
-->
<routes xmlns:xsi="http://www.w3.org/2001/XMLSchema-instance" xsi:noNamespaceSchemaLocation="http://sumo.dlr.de/xsd/routes_file.xsd">
	
	<vType id="vtype0" accel="2.6" decel="4.5" sigma="0.5" length="4.5" minGap="2.5" maxSpeed="14" color="1,1,0"/>
	
	<vType id="warning" accel="2.6" decel="4.5" sigma="0.5" length="4.5" minGap="2.5" maxSpeed="14" color="1,0,0" apparentDecel="0">
		<param key="has.driverstate.device" value="true"/>
		<param key="initialAwareness" value="0.5"/>
	</vType>
	
   
   
</routes>
